 &time_control
 run_days                            = 0,
 run_hours                           = ?,
 run_minutes                         = 0,
 run_seconds                         = 0,
 start_year                          = 2013, 2000, 2000,
 start_month                         = 06,   01,   01,
 start_day                           = 03,   24,   24,
 start_hour                          = ?,   00,   00,
 start_minute                        = 00,   00,   00,
 start_second                        = 00,   00,   00,
 end_year                            = 2013, 2000, 2000,
 end_month                           = 06,   01,   01,
 end_day                             = 03,   25,   25,
 end_hour                            = ?,   12,   12,
 end_minute                          = 00,   00,   00,
 end_second                          = 00,   00,   00,
 interval_seconds                    = 3600,
 input_from_file                     = .true.,.true.,.true.,
 history_interval                    = 60,  60,  60,
 frames_per_outfile                  = 12, 12, 12,
 restart                             = .false.,
 restart_interval                    = 14400,
 !auxinput4_inname                    = "wrflowinp_d<domain>"
 !auxinput4_interval                  = 360., 360., 360.,
 !io_form_auxinput4                   = 2
 io_form_history                     = 2
 io_form_restart                     = 2
 io_form_input                       = 2
 io_form_boundary                    = 2
 io_form_auxinput2                   = 2,                                ! to run ndown successfully

 auxinput5_interval_m                = 60, 60, 60,                       ! Anthropogenic emissions input
 io_form_auxinput5                   = 2,

 debug_level                         = 0
/ 

 &domains
 time_step                           = 45,
 time_step_fract_num                 = 0,
 time_step_fract_den                 = 1,
 max_dom                             = 1,
 s_we                                = 1,
 e_we                                = 81,
 s_sn                                = 1,
 e_sn                                = 51,
 s_vert                              = 1,
 e_vert                              = 31,
 num_metgrid_levels                  = 27,
 dx                                  = 60000,
 dy                                  = 60000,
 grid_id                             = 1,
 parent_id                           = 0,
 i_parent_start                      = 1,
 j_parent_start                      = 1,
 parent_grid_ratio                   = 1,
 parent_time_step_ratio              = 1,
 feedback                            = 0,
 smooth_option                       = 0
 numtiles                            = 1
 p_top_requested                     = 5000,
 /
 
  &physics
  mp_physics                          = 4,
  ra_lw_physics                       = 4,
  ra_sw_physics                       = 4,
  radt                                = 5,
  sf_sfclay_physics                   = 5,
  sf_surface_physics                  = 1,
  bl_pbl_physics                      = 5,
  bldt                                = 0,
  cu_physics                          = 5,
  cudt                                = 0,
  isfflx                              = 1,
  ifsnow                              = 0,
  icloud                              = 1,
  surface_input_source                = 1,
  num_soil_layers                     = 4,
  num_land_cat                        = 20,
  sf_urban_physics                    = 1,
  mp_zero_out                         = 2,
  sst_update                          = 0
  cu_rad_feedback                     = .true.
  cu_diag                             = 1
  ishallow                            = 1
  /
 
  &fdda
  /
 
  &dynamics
  w_damping                           = 1,
  diff_opt                            = 1,
  km_opt                              = 4,
  diff_6th_opt                        = 2,
  diff_6th_factor                     = 0.12,
  base_temp                           = 290.
  damp_opt                            = 3,
  zdamp                               = 5000.,
  dampcoef                            = 0.2,
  khdif                               = 0,
  kvdif                               = 0,
  smdiv                               = 0.1,
  emdiv                               = 0.01,
  epssm                               = 0.1,
  time_step_sound                     = 4,
  h_mom_adv_order                     = 5,
  v_mom_adv_order                     = 3,
  h_sca_adv_order                     = 5,
  v_sca_adv_order                     = 3,
  non_hydrostatic                     = .true.,
  moist_adv_opt                       = 2,
  scalar_adv_opt                      = 2,       
  tke_adv_opt                         = 2,
  do_avgflx_em                        = 1,
  do_avgflx_cugd                      = 1,
  /
 
  &bdy_control
  spec_bdy_width                      = 5,
  spec_zone                           = 1,
  relax_zone                          = 4,
  specified                           = .true.,
  nested                              = .false.,
  /
 
  &grib2
  /
 
  &namelist_quilt
  nio_tasks_per_group = 0,
  nio_groups = 1,
  /

&chem
chem_opt                            = 108,        108,
have_bcs_chem                       = .false.,    .true.,
chem_in_opt                         = 0, 0

gaschem_onoff                       = 1,        1,
aerchem_onoff                       = 1,        0,

vertmix_onoff                       = 1,        1,
chem_conv_tr                        = 1,        0,

gas_drydep_opt                      = 1,        1,
aer_drydep_opt                      = 1,        0,

chemdt                              = 0,        0,
bioemdt                             = 30,       30,

emiss_inpt_opt                      = 1,        1,                     !
emiss_opt                           = ?,        3,                     ! 16- for CO2/CO simulations
                                                                        ! 16- for CO2/CO simulations
kemit                               = ?,       
io_style_emissions                  = 1,                                ! 2- Date/time specific emissions data files used
aircraft_emiss_opt                  = 0,

bio_emiss_opt                       = 0,        0,                      ! 2- includes biogenic emissions reference fields in wrfinput data file and modify values online based upon the weather

phot_opt                            = 1,        1,                      ! 1- uses Madronich photolysis (TUV)
photdt                              = 30,       30,

wetscav_onoff                       = 0,        0,                      ! Wet removal by resolved precipitation
cldchem_onoff                       = 0,        0,                      ! cloud chemistry turned off in the simulation, also see the “chem_opt” parameter

conv_tr_aqchem                      = 0,        0,                      ! CMAQ aqeuous chemistry for sub-grid clouds
conv_tr_wetscav                     = 0,        0,                      ! Wet removal by sub-grid precipitation

seas_opt                            = 0,                                ! no GOCART sea salt emissions, 2- MOSAIC or MADE/SORGAM sea salt emissions
dust_opt                            = 0,                                ! no GOCART dust emissions included
dmsemis_opt                         = 0,                                ! no GOCART dms emissions from sea surface

biomass_burn_opt                    = 0,        0,                      ! no biomass burning emissions
plumerisefire_frq                   = 30,       30,                     ! time interval for calling the biomass burning plume rise subroutine

gas_bc_opt                          = 1,        1,                      ! uses default boundary profile
gas_ic_opt                          = 1,        0,                      ! uses default initial condition profile
                                                                        ! 16 is for GHGs
aer_bc_opt                          = 1,        1,
aer_ic_opt                          = 1,        0,

aer_ra_feedback                     = 0,        0,                      ! feedback from the aerosols to the radiation schemes turned on, see also chem_opt parameter
opt_pars_out                        = 0,                                ! no optical properties output
/
